1o2w_ligand
  MOE2018           3D
Created by X-TOOL on Fri Nov 18 13:21:46 2016
 42 44  0  0  1  0  0  0  0  0999 V2000
   44.0710   -2.9590   26.4710 C   0  0  0  0  0  0  0  0  0  0  0  0
   44.4520   -1.5810   26.4460 C   0  0  0  0  0  0  0  0  0  0  0  0
   44.3730   -0.7600   27.5730 C   0  0  0  0  0  0  0  0  0  0  0  0
   43.9140   -1.3460   28.7220 C   0  0  0  0  0  0  0  0  0  0  0  0
   43.5430   -2.6330   28.7990 C   0  0  0  0  0  0  0  0  0  0  0  0
   43.5980   -3.4890   27.7060 C   0  0  0  0  0  0  0  0  0  0  0  0
   44.1750   -3.7460   25.3230 C   0  0  0  0  0  0  0  0  0  0  0  0
   43.9530   -5.0330   25.4110 N   0  0  0  0  0  0  0  0  0  0  0  0
   44.4890   -3.1740   24.1790 N   0  3  0  0  0  0  0  0  0  0  0  0
   43.7440   -0.8520   29.8950 N   0  0  0  0  0  0  0  0  0  0  0  0
   43.1360   -2.9770   30.0040 N   0  0  0  0  0  0  0  0  0  0  0  0
   43.2930   -1.8190   30.6260 C   0  0  0  0  0  0  0  0  0  0  0  0
   43.0220   -1.6460   32.0050 C   0  0  0  0  0  0  0  0  0  0  0  0
   42.5790   -2.7150   32.8110 C   0  0  0  0  0  0  0  0  0  0  0  0
   42.3030   -2.5710   34.1780 C   0  0  0  0  0  0  0  0  0  0  0  0
   41.7700   -3.8380   34.9550 C   0  0  3  0  0  0  0  0  0  0  0  0
   40.2780   -4.0050   34.4620 C   0  0  0  0  0  0  0  0  0  0  0  0
   40.0010   -4.9840   33.7930 O   0  5  0  0  0  0  0  0  0  0  0  0
   39.4440   -3.1620   34.7340 O   0  0  0  0  0  0  0  0  0  0  0  0
   41.9590   -3.7570   36.5780 C   0  0  0  0  0  0  0  0  0  0  0  0
   42.9600   -4.8000   37.2550 C   0  0  0  0  0  0  0  0  0  0  0  0
   43.1590   -5.9060   36.7880 O   0  5  0  0  0  0  0  0  0  0  0  0
   43.5510   -4.4730   38.2740 O   0  0  0  0  0  0  0  0  0  0  0  0
   42.4850   -1.3000   34.7560 C   0  0  0  0  0  0  0  0  0  0  0  0
   42.9240   -0.2000   34.0050 C   0  0  0  0  0  0  0  0  0  0  0  0
   43.1830   -0.3900   32.6390 C   0  0  0  0  0  0  0  0  0  0  0  0
   43.5940    0.6950   31.9010 O   0  0  0  0  0  0  0  0  0  0  0  0
   43.1810    1.5710   34.8510 Br  0  0  0  0  0  0  0  0  0  0  0  0
   44.8160   -1.1580   25.5170 H   0  0  0  0  0  0  0  0  0  0  0  0
   44.6600    0.2850   27.5400 H   0  0  0  0  0  0  0  0  0  0  0  0
   43.2910   -4.5250   27.7900 H   0  0  0  0  0  0  0  0  0  0  0  0
   44.0260   -5.6270   24.5720 H   0  0  0  0  0  0  0  0  0  0  0  0
   43.7050   -5.4520   26.3190 H   0  0  0  0  0  0  0  0  0  0  0  0
   44.6580   -2.1590   24.1400 H   0  0  0  0  0  0  0  0  0  0  0  0
   44.5650   -3.7420   23.3230 H   0  0  0  0  0  0  0  0  0  0  0  0
   43.9290    0.1160   30.1930 H   0  0  0  0  0  0  0  0  0  0  0  0
   42.4460   -3.6890   32.3540 H   0  0  0  0  0  0  0  0  0  0  0  0
   42.3420   -4.7160   34.6210 H   0  0  0  0  0  0  0  0  0  0  0  0
   40.9690   -3.9070   37.0330 H   0  0  0  0  0  0  0  0  0  0  0  0
   42.3230   -2.7470   36.8180 H   0  0  0  0  0  0  0  0  0  0  0  0
   42.2800   -1.1680   35.8120 H   0  0  0  0  0  0  0  0  0  0  0  0
   44.4060    1.0330   32.2610 H   0  0  0  0  0  0  0  0  0  0  0  0
  1  2  1  0  0  0  0
  1  6  2  0  0  0  0
  1  7  1  0  0  0  0
  2  3  2  0  0  0  0
  2 29  1  0  0  0  0
  3  4  1  0  0  0  0
  3 30  1  0  0  0  0
  4  5  2  0  0  0  0
  4 10  1  0  0  0  0
  5  6  1  0  0  0  0
  5 11  1  0  0  0  0
  6 31  1  0  0  0  0
  7  8  2  0  0  0  0
  7  9  1  0  0  0  0
  8 32  1  0  0  0  0
  8 33  1  0  0  0  0
  9 34  1  0  0  0  0
  9 35  1  0  0  0  0
 10 12  1  0  0  0  0
 10 36  1  0  0  0  0
 11 12  2  0  0  0  0
 12 13  1  0  0  0  0
 13 14  1  0  0  0  0
 13 26  2  0  0  0  0
 14 15  2  0  0  0  0
 14 37  1  0  0  0  0
 15 16  1  0  0  0  0
 15 24  1  0  0  0  0
 16 17  1  0  0  0  0
 16 20  1  0  0  0  0
 16 38  1  0  0  0  0
 17 18  1  0  0  0  0
 17 19  2  0  0  0  0
 20 21  1  0  0  0  0
 20 39  1  0  0  0  0
 20 40  1  0  0  0  0
 21 22  1  0  0  0  0
 21 23  2  0  0  0  0
 24 25  2  0  0  0  0
 24 41  1  0  0  0  0
 25 26  1  0  0  0  0
 25 28  1  0  0  0  0
 26 27  1  0  0  0  0
 27 42  1  0  0  0  0
M  CHG  1   9   1
M  CHG  1  18  -1
M  CHG  1  22  -1
M  END
>  <MOLECULAR_FORMULA>
C18H14N4O5Br

>  <MOLECULAR_WEIGHT>
446.10001

>  <NUM_HB_ATOMS>
9

>  <NUM_ROTOR>
2

>  <XLOGP2>
0.81

>  <i_user_TOTAL_CHARGE>
-1

$$$$
